
 *******************************************************************************

         NASA-GLENN CHEMICAL EQUILIBRIUM PROGRAM CEA2, FEBRUARY 5, 2004
                   BY  BONNIE MCBRIDE AND SANFORD GORDON
      REFS: NASA RP-1311, PART I, 1994 AND NASA RP-1311, PART II, 1996

 *******************************************************************************



  
 ### CEA analysis performed on Fri 19-Dec-2025 21:43:10
  
 # Problem Type: "Rocket" (Finite Area Combustor)
  
 prob case = _______________4385 ro equilibrium  ions  fac
  
 !Contraction Ratio:
 ac/at=1.5
  
 # Pressure (1 value):
 p,bar= 300
 # Chamber/Exit Pressure Ratio (6 values):
 pi/p= 300, 600, 900, 1200, 1500, 2000
 # Supersonic Area Ratio (13 values):
 supar= 50, 100, 150, 200, 250, 300, 350, 400, 450, 500, 550, 600, 800
  
 # Oxidizer/Fuel Wt. ratio (1 value):
 o/f = 5
  
 # You selected the following fuels and oxidizers:
 reac
 fuel H2                wt%=100.0000  t,k=1200.000
 oxid O2(L)             wt%=100.0000
  
 # You selected these options for output:
 # short version of output
 output short
 # Proportions of any products will be expressed as Mass Fractions.
 output massf
 # Heat will be expressed as siunits
 output siunits
 # Transport properties calculated
 output transport
  
  
 # Input prepared by this script:/var/www/sites/cearun/cgi-bin/CEARUN/prepareInpu
 tFile.cgi
  
 ### IMPORTANT:  The following line is the end of your CEA input file!
 end






              THEORETICAL ROCKET PERFORMANCE ASSUMING EQUILIBRIUM

            COMPOSITION DURING EXPANSION FROM FINITE AREA COMBUSTOR

 Pin =  4351.1 PSIA
 Ac/At =  1.5000      Pinj/Pinf =  1.095170
 CASE = _______________

             REACTANT                    WT FRACTION      ENERGY      TEMP
                                          (SEE NOTE)     KJ/KG-MOL      K  
 FUEL        H2                           1.0000000     26794.267   1200.000
 OXIDANT     O2(L)                        1.0000000    -12979.000     90.170

 O/F=    5.00000  %FUEL= 16.666667  R,EQ.RATIO= 1.587337  PHI,EQ.RATIO= 1.587337

                 INJECTOR  COMB END  THROAT     EXIT     EXIT     EXIT     EXIT     EXIT
 Pinj/P            1.0000   1.2238   1.9110   300.00   600.00   900.00  1200.00  1500.00
 P, BAR            300.00   245.13   156.98   1.0000  0.50000  0.33333  0.25000  0.20000
 T, K             3802.62  3743.76  3553.39  1624.36  1415.82  1302.88  1226.68  1169.79
 RHO, KG/CU M    1.1021 1 9.1564 0 6.2272 0 8.9554-2 5.1374-2 3.7218-2 2.9647-2 2.4872-2
 H, KJ/KG         1877.26  1577.64   419.72 -8539.22 -9262.73 -9641.46 -9891.53 -10075.3
 U, KJ/KG         -844.90 -1099.50 -2101.22 -9655.86 -10236.0 -10537.1 -10734.8 -10879.4
 G, KJ/KG        -71108.3 -70522.0 -68013.7 -39822.1 -36529.5 -34733.1 -33515.7 -32603.8
 S, KJ/(KG)(K)    19.1935  19.2586  19.2586  19.2586  19.2586  19.2586  19.2586  19.2586

 M, (1/n)          11.615   11.627   11.720   12.095   12.095   12.095   12.095   12.095
 (dLV/dLP)t      -1.02109 -1.02055 -1.01639 -1.00001 -1.00000 -1.00000 -1.00000 -1.00000
 (dLV/dLT)p        1.3406   1.3366   1.2823   1.0004   1.0001   1.0000   1.0000   1.0000
 Cp, KJ/(KG)(K)    8.2281   8.2268   7.6945   3.5439   3.3953   3.3110   3.2523   3.2077
 GAMMAs            1.1564   1.1557   1.1563   1.2409   1.2539   1.2620   1.2680   1.2728
 SON VEL,M/SEC     1774.2   1759.0   1707.4   1177.1   1104.7   1063.2   1034.0   1011.7
 MACH NUMBER        0.000    0.440    1.000    3.878    4.273    4.515    4.692    4.833

 TRANSPORT PROPERTIES (GASES ONLY)
   CONDUCTIVITY IN UNITS OF MILLIWATTS/(CM)(K)

 VISC,MILLIPOISE   1.0932   1.0810   1.0406  0.57235  0.51069  0.47578  0.45156  0.43310

  WITH EQUILIBRIUM REACTIONS

 Cp, KJ/(KG)(K)    8.2281   8.2268   7.6945   3.5439   3.3953   3.3110   3.2523   3.2077
 CONDUCTIVITY     17.6261  17.4927  15.7259   3.0279   2.6187   2.4051   2.2628   2.1575
 PRANDTL NUMBER    0.5103   0.5084   0.5092   0.6699   0.6621   0.6550   0.6490   0.6439

  WITH FROZEN REACTIONS

 Cp, KJ/(KG)(K)    4.2550   4.2454   4.2122   3.5347   3.3939   3.3107   3.2522   3.2077
 CONDUCTIVITY      6.9038   6.8061   6.4679   3.0067   2.6158   2.4043   2.2625   2.1574
 PRANDTL NUMBER    0.6738   0.6743   0.6777   0.6729   0.6626   0.6551   0.6491   0.6439

 PERFORMANCE PARAMETERS

 Ae/At                      1.5000   1.0000   26.011   43.845   59.518   73.918   87.432
 CSTAR, M/SEC               2576.4   2576.4   2576.4   2576.4   2576.4   2576.4   2576.4
 CF                         0.3005   0.6627   1.7716   1.8320   1.8629   1.8830   1.8977
 Ivac, M/SEC                4232.5   3183.9   4809.0   4926.4   4986.3   5025.4   5053.8
 Isp, M/SEC                  774.1   1707.4   4564.3   4720.2   4799.7   4851.6   4889.3


 MASS FRACTIONS

 *H               0.00333  0.00328  0.00274  0.00000  0.00000  0.00000  0.00000  0.00000
 HO2              0.00008  0.00007  0.00004  0.00000  0.00000  0.00000  0.00000  0.00000
 *H2              0.06211  0.06202  0.06167  0.06167  0.06167  0.06167  0.06167  0.06167
 H2O              0.87763  0.87994  0.89371  0.93833  0.93833  0.93833  0.93833  0.93833
 H2O2             0.00005  0.00004  0.00002  0.00000  0.00000  0.00000  0.00000  0.00000
 *O               0.00273  0.00260  0.00171  0.00000  0.00000  0.00000  0.00000  0.00000
 *OH              0.05079  0.04892  0.03798  0.00000  0.00000  0.00000  0.00000  0.00000
 *O2              0.00327  0.00314  0.00213  0.00000  0.00000  0.00000  0.00000  0.00000

  * THERMODYNAMIC PROPERTIES FITTED TO 20000.K

 NOTE. WEIGHT FRACTION OF FUEL IN TOTAL FUELS AND OF OXIDANT IN TOTAL OXIDANTS










              THEORETICAL ROCKET PERFORMANCE ASSUMING EQUILIBRIUM

            COMPOSITION DURING EXPANSION FROM FINITE AREA COMBUSTOR

 Pin =  4351.1 PSIA
 Ac/At =  1.5000      Pinj/Pinf =  1.095170
 CASE = _______________

             REACTANT                    WT FRACTION      ENERGY      TEMP
                                          (SEE NOTE)     KJ/KG-MOL      K  
 FUEL        H2                           1.0000000     26794.267   1200.000
 OXIDANT     O2(L)                        1.0000000    -12979.000     90.170

 O/F=    5.00000  %FUEL= 16.666667  R,EQ.RATIO= 1.587337  PHI,EQ.RATIO= 1.587337

                 INJECTOR  COMB END  THROAT     EXIT     EXIT     EXIT     EXIT     EXIT
 Pinj/P            1.0000   1.2238   1.9110  2000.00   714.20  1793.44  3079.14  4523.65
 P, BAR            300.00   245.13   156.98  0.15000  0.42005  0.16728  0.09743  0.06632
 T, K             3802.62  3743.76  3553.39  1099.25  1366.49  1125.61   999.32   916.09
 RHO, KG/CU M    1.1021 1 9.1564 0 6.2272 0 1.9851-2 4.4717-2 2.1619-2 1.4183-2 1.0531-2
 H, KJ/KG         1877.26  1577.64   419.72 -10299.6 -9429.34 -10216.3 -10610.7 -10863.8
 U, KJ/KG         -844.90 -1099.50 -2101.22 -11055.3 -10368.7 -10990.0 -11297.6 -11493.5
 G, KJ/KG        -71108.3 -70522.0 -68013.7 -31469.6 -35746.0 -31893.9 -29856.1 -28506.5
 S, KJ/(KG)(K)    19.1935  19.2586  19.2586  19.2586  19.2586  19.2586  19.2586  19.2586

 M, (1/n)          11.615   11.627   11.720   12.095   12.095   12.095   12.095   12.095
 (dLV/dLP)t      -1.02109 -1.02055 -1.01639 -1.00000 -1.00000 -1.00000 -1.00000 -1.00000
 (dLV/dLT)p        1.3406   1.3366   1.2823   1.0000   1.0000   1.0000   1.0000   1.0000
 Cp, KJ/(KG)(K)    8.2281   8.2268   7.6945   3.1520   3.3589   3.1728   3.0742   3.0094
 GAMMAs            1.1564   1.1557   1.1563   1.2789   1.2573   1.2766   1.2880   1.2961
 SON VEL,M/SEC     1774.2   1759.0   1707.4    983.1   1086.8    993.9    940.6    903.4
 MACH NUMBER        0.000    0.440    1.000    5.020    4.376    4.948    5.313    5.588

 TRANSPORT PROPERTIES (GASES ONLY)
   CONDUCTIVITY IN UNITS OF MILLIWATTS/(CM)(K)

 VISC,MILLIPOISE   1.0932   1.0810   1.0406  0.40973  0.49558  0.41853  0.37565  0.34630

  WITH EQUILIBRIUM REACTIONS

 Cp, KJ/(KG)(K)    8.2281   8.2268   7.6945   3.1520   3.3589   3.1728   3.0742   3.0094
 CONDUCTIVITY     17.6261  17.4927  15.7259   2.0285   2.5250   2.0765   1.8491   1.7018
 PRANDTL NUMBER    0.5103   0.5084   0.5092   0.6367   0.6593   0.6395   0.6245   0.6124

  WITH FROZEN REACTIONS

 Cp, KJ/(KG)(K)    4.2550   4.2454   4.2122   3.1520   3.3581   3.1728   3.0742   3.0094
 CONDUCTIVITY      6.9038   6.8061   6.4679   2.0284   2.5233   2.0764   1.8491   1.7018
 PRANDTL NUMBER    0.6738   0.6743   0.6777   0.6367   0.6595   0.6395   0.6245   0.6124

 PERFORMANCE PARAMETERS

 Ae/At                      1.5000   1.0000   108.53   50.000   100.00   150.00   200.00
 CSTAR, M/SEC               2576.4   2576.4   2576.4   2576.4   2576.4   2576.4   2576.4
 CF                         0.3005   0.6627   1.9154   1.8457   1.9088   1.9397   1.9593
 Ivac, M/SEC                4232.5   3183.9   5088.1   4952.9   5075.4   5135.0   5172.7
 Isp, M/SEC                  774.1   1707.4   4935.0   4755.3   4918.0   4997.6   5048.0


 MASS FRACTIONS

 *H               0.00333  0.00328  0.00274  0.00000  0.00000  0.00000  0.00000  0.00000
 HO2              0.00008  0.00007  0.00004  0.00000  0.00000  0.00000  0.00000  0.00000
 *H2              0.06211  0.06202  0.06167  0.06167  0.06167  0.06167  0.06167  0.06167
 H2O              0.87763  0.87994  0.89371  0.93833  0.93833  0.93833  0.93833  0.93833
 H2O2             0.00005  0.00004  0.00002  0.00000  0.00000  0.00000  0.00000  0.00000
 *O               0.00273  0.00260  0.00171  0.00000  0.00000  0.00000  0.00000  0.00000
 *OH              0.05079  0.04892  0.03798  0.00000  0.00000  0.00000  0.00000  0.00000
 *O2              0.00327  0.00314  0.00213  0.00000  0.00000  0.00000  0.00000  0.00000

  * THERMODYNAMIC PROPERTIES FITTED TO 20000.K

 NOTE. WEIGHT FRACTION OF FUEL IN TOTAL FUELS AND OF OXIDANT IN TOTAL OXIDANTS










              THEORETICAL ROCKET PERFORMANCE ASSUMING EQUILIBRIUM

            COMPOSITION DURING EXPANSION FROM FINITE AREA COMBUSTOR

 Pin =  4351.1 PSIA
 Ac/At =  1.5000      Pinj/Pinf =  1.095170
 CASE = _______________

             REACTANT                    WT FRACTION      ENERGY      TEMP
                                          (SEE NOTE)     KJ/KG-MOL      K  
 FUEL        H2                           1.0000000     26794.267   1200.000
 OXIDANT     O2(L)                        1.0000000    -12979.000     90.170

 O/F=    5.00000  %FUEL= 16.666667  R,EQ.RATIO= 1.587337  PHI,EQ.RATIO= 1.587337

                 INJECTOR  COMB END  THROAT     EXIT     EXIT     EXIT     EXIT     EXIT
 Pinj/P            1.0000   1.2238   1.9110  6100.72  7793.10  9588.44  11477.4  13452.5
 P, BAR            300.00   245.13   156.98  0.04917  0.03850  0.03129  0.02614  0.02230
 T, K             3802.62  3743.76  3553.39   855.14   807.66   769.13   736.92   709.42
 RHO, KG/CU M    1.1021 1 9.1564 0 6.2272 0 8.3653-3 6.9336-3 5.9177-3 5.1598-3 4.5729-3
 H, KJ/KG         1877.26  1577.64   419.72 -11045.8 -11185.7 -11298.1 -11391.1 -11470.1
 U, KJ/KG         -844.90 -1099.50 -2101.22 -11633.7 -11740.9 -11826.8 -11897.7 -11957.7
 G, KJ/KG        -71108.3 -70522.0 -68013.7 -27514.7 -26740.1 -26110.4 -25583.3 -25132.5
 S, KJ/(KG)(K)    19.1935  19.2586  19.2586  19.2586  19.2586  19.2586  19.2586  19.2586

 M, (1/n)          11.615   11.627   11.720   12.095   12.095   12.095   12.095   12.095
 (dLV/dLP)t      -1.02109 -1.02055 -1.01639 -1.00000 -1.00000 -1.00000 -1.00000 -1.00000
 (dLV/dLT)p        1.3406   1.3366   1.2823   1.0000   1.0000   1.0000   1.0000   1.0000
 Cp, KJ/(KG)(K)    8.2281   8.2268   7.6945   2.9637   2.9291   2.9016   2.8791   2.8603
 GAMMAs            1.1564   1.1557   1.1563   1.3020   1.3067   1.3105   1.3136   1.3164
 SON VEL,M/SEC     1774.2   1759.0   1707.4    874.9    851.7    832.4    815.8    801.2
 MACH NUMBER        0.000    0.440    1.000    5.811    6.001    6.167    6.315    6.449

 TRANSPORT PROPERTIES (GASES ONLY)
   CONDUCTIVITY IN UNITS OF MILLIWATTS/(CM)(K)

 VISC,MILLIPOISE   1.0932   1.0810   1.0406  0.32423  0.30670  0.29227  0.28006  0.26954

  WITH EQUILIBRIUM REACTIONS

 Cp, KJ/(KG)(K)    8.2281   8.2268   7.6945   2.9637   2.9291   2.9016   2.8791   2.8603
 CONDUCTIVITY     17.6261  17.4927  15.7259   1.5945   1.5113   1.4440   1.3879   1.3401
 PRANDTL NUMBER    0.5103   0.5084   0.5092   0.6026   0.5944   0.5873   0.5810   0.5753

  WITH FROZEN REACTIONS

 Cp, KJ/(KG)(K)    4.2550   4.2454   4.2122   2.9637   2.9291   2.9016   2.8791   2.8603
 CONDUCTIVITY      6.9038   6.8061   6.4679   1.5945   1.5113   1.4440   1.3879   1.3401
 PRANDTL NUMBER    0.6738   0.6743   0.6777   0.6026   0.5944   0.5873   0.5810   0.5753

 PERFORMANCE PARAMETERS

 Ae/At                      1.5000   1.0000   250.00   300.00   350.00   400.00   450.00
 CSTAR, M/SEC               2576.4   2576.4   2576.4   2576.4   2576.4   2576.4   2576.4
 CF                         0.3005   0.6627   1.9732   1.9839   1.9924   1.9994   2.0054
 Ivac, M/SEC                4232.5   3183.9   5199.5   5220.0   5236.3   5249.7   5261.1
 Isp, M/SEC                  774.1   1707.4   5083.9   5111.4   5133.3   5151.4   5166.7


 MASS FRACTIONS

 *H               0.00333  0.00328  0.00274  0.00000  0.00000  0.00000  0.00000  0.00000
 HO2              0.00008  0.00007  0.00004  0.00000  0.00000  0.00000  0.00000  0.00000
 *H2              0.06211  0.06202  0.06167  0.06167  0.06167  0.06167  0.06167  0.06167
 H2O              0.87763  0.87994  0.89371  0.93833  0.93833  0.93833  0.93833  0.93833
 H2O2             0.00005  0.00004  0.00002  0.00000  0.00000  0.00000  0.00000  0.00000
 *O               0.00273  0.00260  0.00171  0.00000  0.00000  0.00000  0.00000  0.00000
 *OH              0.05079  0.04892  0.03798  0.00000  0.00000  0.00000  0.00000  0.00000
 *O2              0.00327  0.00314  0.00213  0.00000  0.00000  0.00000  0.00000  0.00000

  * THERMODYNAMIC PROPERTIES FITTED TO 20000.K

 NOTE. WEIGHT FRACTION OF FUEL IN TOTAL FUELS AND OF OXIDANT IN TOTAL OXIDANTS










              THEORETICAL ROCKET PERFORMANCE ASSUMING EQUILIBRIUM

            COMPOSITION DURING EXPANSION FROM FINITE AREA COMBUSTOR

 Pin =  4351.1 PSIA
 Ac/At =  1.5000      Pinj/Pinf =  1.095170
 CASE = _______________

             REACTANT                    WT FRACTION      ENERGY      TEMP
                                          (SEE NOTE)     KJ/KG-MOL      K  
 FUEL        H2                           1.0000000     26794.267   1200.000
 OXIDANT     O2(L)                        1.0000000    -12979.000     90.170

 O/F=    5.00000  %FUEL= 16.666667  R,EQ.RATIO= 1.587337  PHI,EQ.RATIO= 1.587337

                 INJECTOR  COMB END  THROAT     EXIT     EXIT     EXIT     EXIT
 Pinj/P            1.0000   1.2238   1.9110  15507.7  17638.0  19839.1  29283.5
 P, BAR            300.00   245.13   156.98  0.01935  0.01701  0.01512  0.01024
 T, K             3802.62  3743.76  3553.39   685.52   664.47   645.72   586.83
 RHO, KG/CU M    1.1021 1 9.1564 0 6.2272 0 4.1052-3 3.7237-3 3.4067-3 2.5396-3
 H, KJ/KG         1877.26  1577.64   419.72 -11538.2 -11597.9 -11650.9 -11815.7
 U, KJ/KG         -844.90 -1099.50 -2101.22 -12009.5 -12054.7 -12094.8 -12219.1
 G, KJ/KG        -71108.3 -70522.0 -68013.7 -24740.5 -24394.8 -24086.6 -23117.3
 S, KJ/(KG)(K)    19.1935  19.2586  19.2586  19.2586  19.2586  19.2586  19.2586

 M, (1/n)          11.615   11.627   11.720   12.095   12.095   12.095   12.095
 (dLV/dLP)t      -1.02109 -1.02055 -1.01639 -1.00000 -1.00000 -1.00000 -1.00000
 (dLV/dLT)p        1.3406   1.3366   1.2823   1.0000   1.0000   1.0000   1.0000
 Cp, KJ/(KG)(K)    8.2281   8.2268   7.6945   2.8442   2.8302   2.8179   2.7807
 GAMMAs            1.1564   1.1557   1.1563   1.3187   1.3208   1.3227   1.3284
 SON VEL,M/SEC     1774.2   1759.0   1707.4    788.3    776.7    766.2    732.0
 MACH NUMBER        0.000    0.440    1.000    6.571    6.684    6.789    7.149

 TRANSPORT PROPERTIES (GASES ONLY)
   CONDUCTIVITY IN UNITS OF MILLIWATTS/(CM)(K)

 VISC,MILLIPOISE   1.0932   1.0810   1.0406  0.26032  0.25215  0.24484  0.22167

  WITH EQUILIBRIUM REACTIONS

 Cp, KJ/(KG)(K)    8.2281   8.2268   7.6945   2.8442   2.8302   2.8179   2.7807
 CONDUCTIVITY     17.6261  17.4927  15.7259   1.2987   1.2623   1.2299   1.1285
 PRANDTL NUMBER    0.5103   0.5084   0.5092   0.5701   0.5654   0.5610   0.5462

  WITH FROZEN REACTIONS

 Cp, KJ/(KG)(K)    4.2550   4.2454   4.2122   2.8442   2.8302   2.8179   2.7807
 CONDUCTIVITY      6.9038   6.8061   6.4679   1.2987   1.2623   1.2299   1.1285
 PRANDTL NUMBER    0.6738   0.6743   0.6777   0.5701   0.5654   0.5610   0.5462

 PERFORMANCE PARAMETERS

 Ae/At                      1.5000   1.0000   500.00   550.00   600.00   800.00
 CSTAR, M/SEC               2576.4   2576.4   2576.4   2576.4   2576.4   2576.4
 CF                         0.3005   0.6627   2.0105   2.0149   2.0189   2.0312
 Ivac, M/SEC                4232.5   3183.9   5270.8   5279.4   5286.9   5310.2
 Isp, M/SEC                  774.1   1707.4   5179.9   5191.4   5201.6   5233.2


 MASS FRACTIONS

 *H               0.00333  0.00328  0.00274  0.00000  0.00000  0.00000  0.00000
 HO2              0.00008  0.00007  0.00004  0.00000  0.00000  0.00000  0.00000
 *H2              0.06211  0.06202  0.06167  0.06167  0.06167  0.06167  0.06167
 H2O              0.87763  0.87994  0.89371  0.93833  0.93833  0.93833  0.93833
 H2O2             0.00005  0.00004  0.00002  0.00000  0.00000  0.00000  0.00000
 *O               0.00273  0.00260  0.00171  0.00000  0.00000  0.00000  0.00000
 *OH              0.05079  0.04892  0.03798  0.00000  0.00000  0.00000  0.00000
 *O2              0.00327  0.00314  0.00213  0.00000  0.00000  0.00000  0.00000

  * THERMODYNAMIC PROPERTIES FITTED TO 20000.K

 NOTE. WEIGHT FRACTION OF FUEL IN TOTAL FUELS AND OF OXIDANT IN TOTAL OXIDANTS



